! b3lyp d3bj def2-tzvp tightscf cpcm(CH2Cl2) printBasis
%MaxCore 1000
%pal nprocs 1 end
%scf print[p_mos] 1 end

*xyz 0 1
C     0.916410  -0.667518  -0.097726
C    -0.320523   0.087088   0.064176
N     0.884865  -1.960428  -0.291398
O    -1.411566  -0.700249  -0.006984
O    -0.360069   1.288195   0.242681
C    -2.677559  -0.049867   0.141975
N     0.845884  -3.079257  -0.459404
H     1.894938  -0.189320  -0.066503
H    -3.435304  -0.836861   0.046002
H    -2.753811   0.432689   1.128218
H    -2.819493   0.711219  -0.640200
*




