! b3lyp d3bj def2-tzvp tightscf cpcm(CH2Cl2) printBasis
%MaxCore 1000
%pal nprocs 1 end
%scf print[p_mos] 1 end

*xyz 0 1
C     0.917852  -0.637477  -0.212483
C    -0.307682   0.128522  -0.016164
N     2.049677   0.016640  -0.238808
O    -1.373434  -0.692560  -0.012876
O    -0.375873   1.334518   0.125684
C    -2.649232  -0.071566   0.170809
N     3.020133   0.598093  -0.258681
H     0.960640  -1.719095  -0.339346
H    -3.389104  -0.880125   0.128967
H    -2.698332   0.437846   1.145350
H    -2.844281   0.663409  -0.624848
*




