! b3lyp d3bj def2-svp Freq Opt tightscf cpcm(CH2Cl2)
%pal
    nprocs 1
end
%MaxCore 1000
%freq
    Temp    298.15
end

*xyz 0 1
C     0.934866  -0.645835  -0.118781
C    -0.312224   0.126756   0.008735
N     2.050909   0.031931  -0.221079
O    -1.377214  -0.695565  -0.080738
O    -0.366061   1.325005   0.170151
C    -2.653190  -0.072377   0.149355
N     3.044065   0.622028  -0.426136
H     0.900382  -1.718495  -0.224598
H    -3.386502  -0.863239   0.043969
H    -2.693616   0.355296   1.147760
H    -2.831051   0.712699  -0.581033
*




