#ester_c01_sp
! B3LYP tightscf Freq Opt 6-31G* CPCM(CycloHexane)
%pal
    nprocs 1
end
%MaxCore 1000
%freq
    Temp    298.15
end

*xyz 0 1
C     0.917852  -0.637477  -0.212483
C    -0.307682   0.128522  -0.016164
N     2.049677   0.016640  -0.238808
O    -1.373434  -0.692560  -0.012876
O    -0.375873   1.334518   0.125684
C    -2.649232  -0.071566   0.170809
N     3.020133   0.598093  -0.258681
H     0.960640  -1.719095  -0.339346
H    -2.698332   0.437846   1.145350
H    -2.844281   0.663409  -0.624848
C    -3.674601  -1.192126   0.112821
H    -3.650137  -1.676924  -0.886065
H    -4.692047  -0.784480   0.291735
H    -3.448628  -1.953203   0.889415
*


